tests/data/powerfactory/lv-feeder.dgs
* Synthetic four wire low voltage feeder: a 10 kV external grid, a Dyn
* distribution transformer, a three phase plus neutral main, a single phase
* plus neutral service line, an unbalanced three phase load, and a single
* phase load. Terminals state their phase technology, the line types state
* their neutral conductors, and the loads state per phase demand.
$$General;ID(a:40);Descr(a:40);Val(a:40)
1;Version;5.0

$$ElmNet;ID(a:40);loc_name(a:40);fold_id(p);frnom(r)
2;LV Feeder;;50

$$ElmTerm;ID(a:40);loc_name(a:40);fold_id(p);iUsage(i);uknom(r);phtech(i);ciEarthed(i)
3;MV Bus;2;0;10;0;0
4;LV Bus;2;0;0.4;1;1
5;Pole 1;2;0;0.4;1;0
6;House 1;2;0;0.4;7;0

$$ElmXnet;ID(a:40);loc_name(a:40);fold_id(p);bustp(a:2);pgini(r);qgini(r);usetp(r);phiini(r);snss(r);outserv(i)
7;Grid;2;SL;0;0;1.02;0;250;0

$$TypTr2;ID(a:40);loc_name(a:40);fold_id(p);nt2ph(i);strn(r);frnom(r);utrn_h(r);utrn_l(r);uktr(r);pcutr(r);tr2cn_h(a:2);tr2cn_l(a:2);nt2ag(r);curmg(r);pfe(r);tap_side(i);dutap(r);phitr(r);nntap0(i);ntpmn(i);ntpmx(i)
8;0.4 MVA Dyn5;2;3;0.4;50;10;0.4;4;4.6;D;YN;5;0.5;0.8;0;2.5;0;0;-2;2

$$ElmTr2;ID(a:40);loc_name(a:40);fold_id(p);typ_id(p);ntnum(i);outserv(i);nntap(i);ntrcn(i)
9;T1;2;8;1;0;1;0

$$TypLne;ID(a:40);loc_name(a:40);fold_id(p);uline(r);sline(r);rline(r);xline(r);rline0(r);xline0(r);nlnph(i);nneutral(i);rnline(r);xnline(r);rpnline(r);xpnline(r);bline(r);bline0(r);frnom(r)
10;4x95 Al;2;0.4;0.25;0.32;0.075;1.28;0.3;3;1;0.32;0.075;0.16;0.05;0;0;50
11;2x25 Al;2;0.4;0.1;1.2;0.09;1.2;0.09;1;1;1.2;0.09;0;0;0;0;50

$$ElmLne;ID(a:40);loc_name(a:40);fold_id(p);typ_id(p);dline(r);nlnum(i);outserv(i)
12;Main;2;10;0.25;1;0
13;Service;2;11;0.04;1;0

$$TypLod;ID(a:40);loc_name(a:40);fold_id(p);systp(i);phtech(i);aP(r);bP(r);kpu0(r);kpu1(r);kpu(r);aQ(r);bQ(r);kqu0(r);kqu1(r);kqu(r)
14;Constant power;2;0;0;1;0;0;1;2;1;0;0;1;2

$$ElmLod;ID(a:40);loc_name(a:40);fold_id(p);typ_id(p);phtech(i);i_sym(i);plini(r);qlini(r);plinir(r);qlinir(r);plinis(r);qlinis(r);plinit(r);qlinit(r);scale0(r);outserv(i)
15;Pole load;2;14;2;1;0.045;0.012;0.010;0.003;0.020;0.005;0.015;0.004;1;0

$$ElmLodlv;ID(a:40);loc_name(a:40);fold_id(p);typ_id(p);phtech(i);plini(r);qlini(r);slini(r);coslini(r);mode_inp(a:3);outserv(i)
16;House load;2;;4;0.005;0.001;;;PQ;0

$$StaCubic;ID(a:40);loc_name(a:40);fold_id(p);obj_bus(i);obj_id(p);nphase(i);it2p1(i);it2p2(i);it2p3(i)
17;Grid cub;3;0;7;3;0;1;2
18;T1 HV;3;0;9;3;0;1;2
19;T1 LV;4;1;9;3;0;1;2
20;Main from;4;0;12;3;0;1;2
21;Main to;5;1;12;3;0;1;2
22;Pole load cub;5;0;15;3;0;1;2
23;Service from;5;0;13;1;1;;
24;Service to;6;1;13;1;0;;
25;House load cub;6;0;16;1;0;;

$$StaSwitch;ID(a:40);loc_name(a:40);fold_id(p);on_off(i);aUsage(a:4)
26;Switch;17;1;cbk
27;Switch;18;1;cbk
28;Switch;19;1;cbk
29;Switch;20;1;cbk
30;Switch;21;1;cbk
31;Switch;22;1;cbk
32;Switch;23;1;cbk
33;Switch;24;1;cbk
34;Switch;25;1;cbk
